GW	1	11	-50	-523.15	0.0000	-50	523.15	0.0000	3.2
GW	2	11	560	-497	0.0000	560	497	0.0000	3.2
GW	3	9	860	-452.25	0.0000	860	452.25	0.0000	3.2

GS	0	0	mm
GE	0
EX	0	2	6	00	1.0	0.0
'
GN	-1
FR	0	1	0	0	 144
EN
