GW	1	11	-50	-525.5	0.0000	-50	525.5	0.0000	3.2
GW	2	11	560	-496.5	0.0000	560	496.5	0.0000	3.2
GW	3	9	860	-455	0.0000	860	455	0.0000	3.2

GS	0	0	mm
GE	0
EX	0	2	6	00	1.0	0.0
'
GN	-1
FR	0	1	0	0	 144
EN
